data_COTMTU

_cell_length_a                     9.880(2)
_cell_length_b                     12.690(3)
_cell_length_c                     14.130(3)
_cell_angle_alpha                  90
_cell_angle_beta                   92.99(3)
_cell_angle_gamma                  90
_cell_volume                       1769.2(6)

_symmetry_space_group_name_H-M       'P12(1)/n'
_symmetry_space_group_name_Hall      '-F 4vw 2vw 3'



loop_
_atom_site_label
_atom_site_fract_x
_atom_site_fract_y
_atom_site_fract_z
_atom_site_occupancy
_atom_site_symmetry_multiplicity
_atom_site_U_iso_or_equiv
Co1   0.776245       0.242943       0.51325        1    4    0.005
Cl1   0.930669       0.188867       0.626753       1    4    0.008
Cl2   0.852068       0.241653       0.365593       1    4    0.008
S_2    0.717292       0.416565       0.555126       1    4    0.007
S_1    0.58385        0.14003        0.531707       1    4    0.007
N_3    0.74983        0.585887       0.447295       1    4    0.007
N_4    0.619924       0.453406       0.37656        1    4    0.007
N_1    0.584242       0.009899       0.678659       1    4    0.008
N_2    0.73966       -0.031045       0.566973       1    4    0.007
C_2    0.693993       0.48916        0.452064       1    4    0.006
C_5    0.523593       0.367125       0.382871       1    4    0.009
C_7    0.832797      -0.086658       0.633569       1    4    0.011
C_6    0.85771        0.620329       0.514693       1    4    0.011
C_1    0.641452       0.031943       0.596569       1    4    0.006
C_4    0.511849       0.090774       0.729791       1    4    0.011
C_10   0.684653       0.672021       0.39266        1    4    0.010
C_8    0.563264      -0.098183       0.711382       1    4    0.011
C_9    0.650556       0.481538       0.279511       1    4    0.010
C_3    0.783367      -0.026965       0.470006       1    4    0.010
H_5A   0.571527       0.294205       0.364604       1    4    0.013
H_5B   0.437527       0.381133       0.33457        1    4    0.013
H_5C   0.490313       0.362075       0.454107       1    4    0.013
H_7A   0.819441      -0.058395       0.704344       1    4    0.017
H_7B   0.935596      -0.072584       0.615018       1    4    0.017
H_7C   0.811847      -0.169904       0.630324       1    4    0.017
H_6A   0.81401        0.64974        0.577758       1    4    0.016
H_6B   0.91543        0.681928       0.483262       1    4    0.016
H_6C   0.923268       0.55476        0.532781       1    4    0.016
H_4A   0.565214       0.164549       0.726153       1    4    0.016
H_4B   0.506037       0.067706       0.802818       1    4    0.016
H_4C   0.411023       0.099786       0.698052       1    4    0.016
H_10A  0.74474        0.691502       0.333671       1    4    0.015
H_10B  0.676289       0.740113       0.437475       1    4    0.015
H_10C  0.585042       0.647717       0.366773       1    4    0.015
H_8A   0.457057      -0.110895       0.720903       1    4    0.016
H_8B   0.619644      -0.11036        0.777782       1    4    0.016
H_8C   0.597673      -0.152889       0.659547       1    4    0.016
H_9A   0.745448       0.52337        0.280184       1    4    0.015
H_9B   0.571095       0.530977       0.249052       1    4    0.015
H_9C   0.657805       0.410994       0.237702       1    4    0.015
H_3A   0.860526       0.032408       0.464846       1    4    0.016
H_3B   0.69817       -0.007787       0.422471       1    4    0.016
H_3C   0.823732      -0.102463       0.451039       1    4    0.016


