#\#RCIF_1.0
global_filerhochi


data_Fe3O4
_cell_length_a 8.53046738033
_cell_length_b 8.53046738033
_cell_length_c 8.53046738033
_cell_angle_alpha 90.0
_cell_angle_beta 90.0
_cell_angle_gamma 90.0


_space_group_name_H-M_alt 'F d -3 m'
_space_group_it_coordinate_system_code '2'

loop_
_atom_site_label
_atom_site_type_symbol
_atom_site_fract_x
_atom_site_fract_y
_atom_site_fract_z
_atom_site_occupancy
_atom_site_b_iso_or_equiv
 Fe3A  Fe  0.125  0.125  0.125  1.0  0.0 
 Fe3B  Fe  0.5  0.5  0.5  1.0  0.0
 O1  O  0.25521  0.25521  0.25521  1.0  0.0


loop_
_atom_site_type_symbol
_atom_site_bscat
 Fe  0.945
 O  0.5803


loop_
_atom_site_aniso_label
_atom_site_aniso_beta_11
_atom_site_aniso_beta_22
_atom_site_aniso_beta_33
_atom_site_aniso_beta_12
_atom_site_aniso_beta_13
_atom_site_aniso_beta_23
 Fe3A  0.0  0.0  0.0  0.0  0.0  0.0
 Fe3B  0.0  0.0  0.0  0.0  0.0  0.0
 O1  0.0  0.0  0.0  0.0  0.0  0.0


loop_
_atom_site_magnetism_aniso_label
_atom_site_magnetism_type_symbol
_atom_site_magnetism_kappa
_atom_site_magnetism_lfactor
_atom_site_susceptibility_aniso_chi_11
_atom_site_susceptibility_aniso_chi_22
_atom_site_susceptibility_aniso_chi_33
_atom_site_susceptibility_aniso_chi_23
_atom_site_susceptibility_aniso_chi_13
_atom_site_susceptibility_aniso_chi_12
 Fe3A  Fe3  1.0  2.0  -4.04558269874()  -4.04558269874  -4.04558269874  0.0  0.0  0.0
 Fe3B  Fe3  1.0  2.0  3.98446052732  3.98446052732  3.98446052732  0.0  0.0  0.0


